
  EPA STORM WATER MANAGEMENT MODEL - VERSION 5.1 (Build 5.1.013)
  --------------------------------------------------------------

  
  *********************************************************
  NOTE: The summary statistics displayed in this report are
  based on results found at every computational time step,  
  not just on results from each reporting time step.
  *********************************************************
  
  ****************
  Analysis Options
  ****************
  Flow Units ............... CFS
  Process Models:
    Rainfall/Runoff ........ NO
    RDII ................... NO
    Snowmelt ............... NO
    Groundwater ............ NO
    Flow Routing ........... YES
    Ponding Allowed ........ NO
    Water Quality .......... NO
  Flow Routing Method ...... DYNWAVE
  Surcharge Method ......... EXTRAN
  Starting Date ............ 03/12/2024 00:00:00
  Ending Date .............. 03/12/2024 06:00:00
  Antecedent Dry Days ...... 8.0
  Report Time Step ......... 00:01:00
  Routing Time Step ........ 30.00 sec
  Variable Time Step ....... YES
  Maximum Trials ........... 8
  Number of Threads ........ 1
  Head Tolerance ........... 0.005000 ft
  
  
  **************************        Volume        Volume
  Flow Routing Continuity        acre-feet      10^6 gal
  **************************     ---------     ---------
  Dry Weather Inflow .......         0.000         0.000
  Wet Weather Inflow .......         0.000         0.000
  Groundwater Inflow .......         0.000         0.000
  RDII Inflow ..............         0.000         0.000
  External Inflow ..........         0.312         0.102
  External Outflow .........         0.312         0.102
  Flooding Loss ............         0.000         0.000
  Evaporation Loss .........         0.000         0.000
  Exfiltration Loss ........         0.000         0.000
  Initial Stored Volume ....         0.000         0.000
  Final Stored Volume ......         0.000         0.000
  Continuity Error (%) .....         0.000
  
  
  ***************************
  Time-Step Critical Elements
  ***************************
  Link 5 (59.85%)
  Link 4 (40.15%)
  
  
  ********************************
  Highest Flow Instability Indexes
  ********************************
  All links are stable.
  
  
  *************************
  Routing Time Step Summary
  *************************
  Minimum Time Step           :     0.00 sec
  Average Time Step           :     1.90 sec
  Maximum Time Step           :     9.61 sec
  Percent in Steady State     :    -0.00
  Average Iterations per Step :     2.00
  Percent Not Converging      :     0.00
  
  
  ******************
  Node Depth Summary
  ******************
  
  ---------------------------------------------------------------------------------
                                 Average  Maximum  Maximum  Time of Max    Reported
                                   Depth    Depth      HGL   Occurrence   Max Depth
  Node                 Type         Feet     Feet     Feet  days hr:min        Feet
  ---------------------------------------------------------------------------------
  1                    JUNCTION     0.34     0.44     1.44     0  02:29        0.44
  2                    JUNCTION     0.29     0.38     1.28     0  02:30        0.38
  3                    JUNCTION     0.30     0.39     1.09     0  02:30        0.39
  4                    JUNCTION     0.28     0.37     0.87     0  02:30        0.36
  5                    JUNCTION     0.28     0.37     0.77     0  02:30        0.36
  6                    OUTFALL      0.28     0.37     0.67     0  02:30        0.36
  
  
  *******************
  Node Inflow Summary
  *******************
  
  -------------------------------------------------------------------------------------------------
                                  Maximum  Maximum                  Lateral       Total        Flow
                                  Lateral    Total  Time of Max      Inflow      Inflow     Balance
                                   Inflow   Inflow   Occurrence      Volume      Volume       Error
  Node                 Type           CFS      CFS  days hr:min    10^6 gal    10^6 gal     Percent
  -------------------------------------------------------------------------------------------------
  1                    JUNCTION      1.08     1.08     0  02:30       0.102       0.102      -0.008
  2                    JUNCTION      0.00     1.09     0  02:30           0       0.102      -0.008
  3                    JUNCTION      0.00     1.08     0  02:30           0       0.102      -0.011
  4                    JUNCTION      0.00     1.08     0  02:30           0       0.102      -0.003
  5                    JUNCTION      0.00     1.08     0  02:30           0       0.102      -0.008
  6                    OUTFALL       0.00     1.08     0  02:30           0       0.102       0.000
  
  
  **********************
  Node Surcharge Summary
  **********************
  
  No nodes were surcharged.
  
  
  *********************
  Node Flooding Summary
  *********************
  
  No nodes were flooded.
  
  
  ***********************
  Outfall Loading Summary
  ***********************
  
  -----------------------------------------------------------
                         Flow       Avg       Max       Total
                         Freq      Flow      Flow      Volume
  Outfall Node           Pcnt       CFS       CFS    10^6 gal
  -----------------------------------------------------------
  6                     99.93      0.69      1.08       0.102
  -----------------------------------------------------------
  System                99.93      0.69      1.08       0.102
  
  
  ********************
  Link Flow Summary
  ********************
  
  -----------------------------------------------------------------------------
                                 Maximum  Time of Max   Maximum    Max/    Max/
                                  |Flow|   Occurrence   |Veloc|    Full    Full
  Link                 Type          CFS  days hr:min    ft/sec    Flow   Depth
  -----------------------------------------------------------------------------
  1                    CONDUIT      1.09     0  02:30      3.57    0.41    0.41
  2                    CONDUIT      1.08     0  02:30      3.81    0.31    0.39
  3                    CONDUIT      1.08     0  02:30      3.93    0.33    0.38
  4                    CONDUIT      1.08     0  02:30      4.15    0.28    0.37
  5                    CONDUIT      1.08     0  02:30      4.15    0.28    0.37
  
  
  ***************************
  Flow Classification Summary
  ***************************
  
  -------------------------------------------------------------------------------------
                      Adjusted    ---------- Fraction of Time in Flow Class ---------- 
                       /Actual         Up    Down  Sub   Sup   Up    Down  Norm  Inlet 
  Conduit               Length    Dry  Dry   Dry   Crit  Crit  Crit  Crit  Ltd   Ctrl  
  -------------------------------------------------------------------------------------
  1                       1.00   0.00  0.00  0.00  0.01  0.99  0.00  0.00  0.91  0.00
  2                       1.00   0.00  0.00  0.00  0.01  0.99  0.00  0.00  0.17  0.00
  3                       1.00   0.00  0.00  0.00  0.01  0.99  0.00  0.00  0.84  0.00
  4                       1.00   0.00  0.00  0.00  0.01  0.99  0.00  0.00  0.51  0.00
  5                       1.00   0.00  0.00  0.00  0.00  1.00  0.00  0.00  0.48  0.00
  
  
  *************************
  Conduit Surcharge Summary
  *************************
  
  No conduits were surcharged.
  

  Analysis begun on:  Tue May 21 16:51:26 2024
  Analysis ended on:  Tue May 21 16:51:26 2024
  Total elapsed time: < 1 sec